*Heading
** Job name: Task6_Mesh40_core Model name: Task6_Mesh40_core
** Generated by: Abaqus/CAE 2019
*Preprint, echo=NO, model=NO, history=NO, contact=NO
**
** PARTS
**
*Part, name=Block
*Node
      1,         -0.5, 0.00999999978,           2.
      2,         -0.5,  0.259749979,           2.
      3,         -0.5,  0.509499967,           2.
      4,         -0.5,  0.759249985,           2.
      5,         -0.5,   1.00899994,           2.
      6,         -0.5,   1.25874996,           2.
      7,         -0.5,   1.50849998,           2.
      8,         -0.5,   1.75824988,           2.
      9,         -0.5,    2.0079999,           2.
     10,         -0.5,    2.2577498,           2.
     11,         -0.5,   2.50749993,           2.
     12,         -0.5,   2.75724983,           2.
     13,         -0.5,   3.00699997,           2.
     14,         -0.5,   3.25674987,           2.
     15,         -0.5,   3.50649977,           2.
     16,         -0.5,    3.7562499,           2.
     17,         -0.5,   4.00600004,           2.
     18,         -0.5,    4.2557497,           2.
     19,         -0.5,   4.50549984,           2.
     20,         -0.5,   4.75524998,           2.
** ... 7801 like lines cut
****************************************************************
** ---------------- Element type definition ------------------
*********************** HEXAGONAL ***************************
** ---------------- Displacement ----------------
*User element, nodes=8, type=U2, properties=10, coordinates=3, VARIABLES=344
1,2,3
** ---------------- Phase-field ----------------
*User element, nodes=8, type=U4, properties=3, coordinates=3, VARIABLES=24
4
***************************************************************
** ---------------- Element definition ------------------
***************************************************************
** ---------------- Displacement ----------------
*Element, type=U2
   1,  190,  191,  212,  211,    1,    2,   23,   22
   2,  191,  192,  213,  212,    2,    3,   24,   23
   3,  192,  193,  214,  213,    3,    4,   25,   24
   4,  193,  194,  215,  214,    4,    5,   26,   25
   5,  194,  195,  216,  215,    5,    6,   27,   26
   6,  195,  196,  217,  216,    6,    7,   28,   27
   7,  196,  197,  218,  217,    7,    8,   29,   28
   8,  197,  198,  219,  218,    8,    9,   30,   29
   9,  198,  199,  220,  219,    9,   10,   31,   30
  10,  199,  200,  221,  220,   10,   11,   32,   31
  11,  200,  201,  222,  221,   11,   12,   33,   32
  12,  201,  202,  223,  222,   12,   13,   34,   33
  13,  202,  203,  224,  223,   13,   14,   35,   34
  14,  203,  204,  225,  224,   14,   15,   36,   35
  15,  204,  205,  226,  225,   15,   16,   37,   36
  16,  205,  206,  227,  226,   16,   17,   38,   37
  17,  206,  207,  228,  227,   17,   18,   39,   38
  18,  207,  208,  229,  228,   18,   19,   40,   39
  19,  208,  209,  230,  229,   19,   20,   41,   40
  20,  209,  210,  231,  230,   20,   21,   42,   41
** ... 6380 like lines cut
***************************************************************
** ---------------- Phase-field ----------------
*Element, type=U4
6401,  190,  191,  212,  211,    1,    2,   23,   22
6402,  191,  192,  213,  212,    2,    3,   24,   23
6403,  192,  193,  214,  213,    3,    4,   25,   24
6404,  193,  194,  215,  214,    4,    5,   26,   25
6405,  194,  195,  216,  215,    5,    6,   27,   26
6406,  195,  196,  217,  216,    6,    7,   28,   27
6407,  196,  197,  218,  217,    7,    8,   29,   28
6408,  197,  198,  219,  218,    8,    9,   30,   29
6409,  198,  199,  220,  219,    9,   10,   31,   30
6410,  199,  200,  221,  220,   10,   11,   32,   31
6411,  200,  201,  222,  221,   11,   12,   33,   32
6412,  201,  202,  223,  222,   12,   13,   34,   33
6413,  202,  203,  224,  223,   13,   14,   35,   34
6414,  203,  204,  225,  224,   14,   15,   36,   35
6415,  204,  205,  226,  225,   15,   16,   37,   36
6416,  205,  206,  227,  226,   16,   17,   38,   37
6417,  206,  207,  228,  227,   17,   18,   39,   38
6418,  207,  208,  229,  228,   18,   19,   40,   39
6419,  208,  209,  230,  229,   19,   20,   41,   40
6420,  209,  210,  231,  230,   20,   21,   42,   41
** ... 6380 like lines cut
***************************************************************
********************** ASSIGNING MATERIAL PROP ****************
** ---------------- Generate sets ----------------
*Elset, elset=Block, generate
     1,  6400,      1
***************************************************************
*Uel property, elset=Block
210, 0.3, 365, 0, 0, 2.785e-9, 0, 0,
0.5, 3
**E, nu, Y, H, eps_cr, rho, anisoswt, plswt,
**lc, gc
***************************************************************
*Elset, elset=Block_PH, generate
6401, 12800, 1
***************************************************************
*Uel property, elset=Block_PH
0.5, 3, 0
**lc, gc, elswt
***************************************************************
** ---------------- UMAT element layer ----------------
*Element, type=C3D8
12801,  190,  191,  212,  211,    1,    2,   23,   22
12802,  191,  192,  213,  212,    2,    3,   24,   23
12803,  192,  193,  214,  213,    3,    4,   25,   24
12804,  193,  194,  215,  214,    4,    5,   26,   25
12805,  194,  195,  216,  215,    5,    6,   27,   26
12806,  195,  196,  217,  216,    6,    7,   28,   27
12807,  196,  197,  218,  217,    7,    8,   29,   28
12808,  197,  198,  219,  218,    8,    9,   30,   29
12809,  198,  199,  220,  219,    9,   10,   31,   30
12810,  199,  200,  221,  220,   10,   11,   32,   31
12811,  200,  201,  222,  221,   11,   12,   33,   32
12812,  201,  202,  223,  222,   12,   13,   34,   33
12813,  202,  203,  224,  223,   13,   14,   35,   34
12814,  203,  204,  225,  224,   14,   15,   36,   35
12815,  204,  205,  226,  225,   15,   16,   37,   36
12816,  205,  206,  227,  226,   16,   17,   38,   37
12817,  206,  207,  228,  227,   17,   18,   39,   38
12818,  207,  208,  229,  228,   18,   19,   40,   39
12819,  208,  209,  230,  229,   19,   20,   41,   40
12820,  209,  210,  231,  230,   20,   21,   42,   41
** ... 6380 like lines cut
*Nset, nset=umatelem, generate
    1,  7821,     1
*Elset, elset=umatelem, generate
 12801,  19200,      1
** Section: umatelem
*Solid Section, elset=umatelem, material=umaterial
,
*End Part
**  
**
** ASSEMBLY
**
*Assembly, name=Assembly
**  
*Instance, name=Block-1, part=Block
*End Instance
**  
*Nset, nset=BTM, instance=Block-1
 1714, 1719, 1724, 1725, 1736, 1737, 1738, 1739, 1741, 1758, 1777, 1778, 1793, 1797, 1801, 1807
 1812, 1814, 1816, 1819, 1820, 1857, 1859, 1863, 1864, 1865, 1866, 1867, 1868, 1869, 1870, 1871
 1872, 1873, 1906, 1910, 1911, 1937, 1943, 1944, 1945, 1948, 1952, 1955, 1974, 1975, 1976, 1977
 1978, 1979, 1980, 1981, 1982, 1983, 1984, 1985, 1986, 1987, 1988, 1989, 1990, 2044, 2045, 2046
 2047, 2048, 2049, 2050, 2051, 2052, 2053, 2054, 2055, 2056, 2057, 2058, 2059, 2060, 2061, 2062
 2063, 3406, 3409, 3429, 3439, 3440, 3441, 3442, 3443, 3444, 3445, 3446, 3447, 3448, 3506, 3507
 3508, 3509, 3510, 3511, 3512, 3513, 3514, 3515, 3518, 3519, 3520, 3521, 3522, 3557, 3560, 3561
 3562, 3563, 3564, 3565, 3566, 3567, 3568, 3569, 3570, 3571, 3572, 3573, 3574, 3575, 3576, 3617
 3618, 3619, 3620, 3621, 3857, 3858, 3859, 3860, 4477, 4478, 4479, 4480, 4481, 4515, 4516, 4517
 4518, 4519, 4520, 4521, 4522, 4523, 4524, 4525, 4534, 4535, 4560, 4583, 4608, 4614, 4622, 4628
 4690, 4691, 4692, 4693, 4694, 4695, 4696, 4697, 4698, 4699, 4700, 4701, 4702, 4703, 4704, 4733
 4735, 4755, 4758, 4777, 4805, 4806, 4807, 4808, 4809, 4810, 4811, 4812, 4813
*Elset, elset=BTM, instance=Block-1
 14081, 14082, 14083, 14084, 14085, 14086, 14087, 14088, 14089, 14090, 14091, 14092, 14093, 14094, 14095, 14096
 14097, 14098, 14099, 14100, 14101, 14102, 14103, 14104, 14105, 14106, 14107, 14108, 14109, 14110, 14111, 14112
 14113, 14114, 14115, 14116, 14117, 14118, 14119, 14120, 14121, 14122, 14123, 14124, 14125, 14126, 14127, 14128
 14129, 14130, 14131, 14132, 14133, 14134, 14135, 14136, 14137, 14138, 14139, 14140, 14141, 14142, 14143, 14144
 15400, 15440, 15480, 15520, 15560, 15600, 15640, 15680, 15720, 15760, 15800, 15840, 15880, 15920, 15960, 16000
 16040, 16080, 16120, 16160, 16200, 16240, 16280, 16320, 16360, 16400, 16440, 16480, 16520, 16560, 16600, 16640
 16680, 16720, 16760, 16800, 16840, 16880, 16920, 16960, 17000, 17040, 17080, 17120, 17160, 17200, 17240, 17280
 17320, 17360, 17400, 17440, 17480, 17520, 17560, 17600, 17640, 17680, 17720, 17760, 17800, 17840, 17880, 17920
 17960, 18000, 18040, 18080, 18120, 18160, 18200, 18240, 18280, 18320, 18360, 18400, 18440, 18480, 18520, 18560
 18600, 18640, 18680, 18720, 18760, 18800, 18840, 18880, 18920, 18960, 19000, 19040, 19080, 19120, 19160, 19200
*Nset, nset=TOP, instance=Block-1
   21,   42,   63,   84,  105,  126,  147,  168,  189,  210,  231,  252,  273,  294,  315,  336
  357,  378,  399,  420,  441,  462,  483,  504,  525,  546,  567,  588,  609,  630,  651,  672
  693,  714,  735,  756,  777,  798,  819,  840,  861,  882,  903,  924,  945,  966,  987, 1008
 1029, 1050, 1071, 1092, 1113, 1134, 1155, 1176, 1197, 1218, 1239, 1260, 1281, 1302, 1323, 1344
 1365, 1386, 1407, 1428, 1449, 1470, 1491, 1512, 1533, 1554, 1575, 1596, 1617, 1638, 1659, 1680
 1701, 3407, 3419, 3420, 3432, 3438, 3476, 3477, 3478, 3479, 3480, 3481, 3482, 3483, 3484, 3485
 3486, 3487, 3488, 3498, 3559, 3579, 3580, 3581, 3582, 3583, 3584, 3585, 3586, 3587, 3588, 3589
 3590, 3591, 3592, 3593, 3594, 3595, 3616, 3712, 3713, 3714, 3715, 3716, 3717, 3718, 3719, 3720
 3721, 3722, 3723, 3724, 3725, 3727, 3728, 3736, 3737, 3738, 3739, 3740, 3741, 3742, 3743, 3744
 3745, 3746, 3845, 3846, 3847, 3848, 3849, 3850, 3851, 3852, 3853, 3854, 3855, 3856, 3864, 3865
 3866, 3867, 3868, 3869, 3871, 4536, 4539, 4563, 4618, 4626, 4644, 4689, 4728, 4736, 4748, 4750
 4754, 4759, 4764, 4765, 4771, 4797, 4798, 4799, 4800, 4801, 4802, 4803, 4804
*Elset, elset=TOP, instance=Block-1
 12820, 12840, 12860, 12880, 12900, 12920, 12940, 12960, 12980, 13000, 13020, 13040, 13060, 13080, 13100, 13120
 13140, 13160, 13180, 13200, 13220, 13240, 13260, 13280, 13300, 13320, 13340, 13360, 13380, 13400, 13420, 13440
 13460, 13480, 13500, 13520, 13540, 13560, 13580, 13600, 13620, 13640, 13660, 13680, 13700, 13720, 13740, 13760
 13780, 13800, 13820, 13840, 13860, 13880, 13900, 13920, 13940, 13960, 13980, 14000, 14020, 14040, 14060, 14080
 15361, 15401, 15441, 15481, 15521, 15561, 15601, 15641, 15681, 15721, 15761, 15801, 15841, 15881, 15921, 15961
 16001, 16041, 16081, 16121, 16161, 16201, 16241, 16281, 16321, 16361, 16401, 16441, 16481, 16521, 16561, 16601
 16641, 16681, 16721, 16761, 16801, 16841, 16881, 16921, 16961, 17001, 17041, 17081, 17121, 17161, 17201, 17241
 17281, 17321, 17361, 17401, 17441, 17481, 17521, 17561, 17601, 17641, 17681, 17721, 17761, 17801, 17841, 17881
 17921, 17961, 18001, 18041, 18081, 18121, 18161, 18201, 18241, 18281, 18321, 18361, 18401, 18441, 18481, 18521
 18561, 18601, 18641, 18681, 18721, 18761, 18801, 18841, 18881, 18921, 18961, 19001, 19041, 19081, 19121, 19161
*Elset, elset=_btm_S4, internal, instance=Block-1, generate
 15400,  19200,     40
*Elset, elset=_btm_S2, internal, instance=Block-1, generate
 14081,  14144,      1
*Surface, type=ELEMENT, name=btm
_btm_S4, S4
_btm_S2, S2
*Elset, elset=_top_S4, internal, instance=Block-1, generate
 12820,  14080,     20
*Elset, elset=_top_S6, internal, instance=Block-1, generate
 15361,  19161,     40
*Surface, type=ELEMENT, name=top
_top_S4, S4
_top_S6, S6
*Elset, elset=umatelem, instance=Block-1, generate
 12801,  19200,      1
**
*End Assembly
*Amplitude, name=Amp-1, time=TOTAL TIME
             0.,              0.,              5.,            1
** 
** MATERIALS
** 
** ----- UMAT MATERIAL -----
*Material, name=umaterial
*Density
 1e-11,
*Depvar
     34,
*User Material, constants=2
 1e-11, 0.3
** ----------------------------------------------------------------
** 
** STEP: Step-1
** 
** ---- Time integration control
*Step, name=Step-1, nlgeom=NO, inc=500
*Static, direct
0.01, 5, 
** BOUNDARY CONDITIONS
** 
** Name: BTM Type: Displacement/Rotation
*Boundary
BTM, 1, 1
BTM, 2, 2
BTM, 3, 3
** Name: TOP Type: Displacement/Rotation
*Boundary, amplitude=Amp-1
TOP, 2, 2, 1.
** 
** OUTPUT REQUESTS
** 
*Restart, write, frequency=0
** 
** FIELD OUTPUT: F-Output-1
** 
*Output, field
*Node Output
RF, U
** 
** HISTORY OUTPUT: H-Output-1
** 
*element output, elset=umatelem
SDV
**
*End Step
